/*--------------------------------*- C++ -*----------------------------------*\
| =========                 |                                                 |
| \\      /  F ield         | OpenFOAM: The Open Source CFD Toolbox           |
|  \\    /   O peration     | Version:  v2012                                 |
|   \\  /    A nd           | Website:  www.openfoam.com                      |
|    \\/     M anipulation  |                                                 |
\*---------------------------------------------------------------------------*/
FoamFile
{
    version     2.0;
    format      ascii;
    class       dictionary;
    object      snappyHexMeshDict;
}
// * * * * * * * * * * * * * * * * * * * * * * * * * * * * * * * * * * * * * //

#includeEtc "caseDicts/mesh/generation/snappyHexMeshDict.cfg"

castellatedMesh on;
snap            on;
addLayers       off;

geometry
{
    Simple.stl
    {
        type triSurfaceMesh;
        name Peiyang;
    }

    /*refinementBox
    {
        type box;
        min  (  0   0   0);
        max  (250 180  90);
    }*/
}

castellatedMeshControls
{
    resolveFeatureAngle     30;
    
    features
    (
      { file  "Simple.eMesh"; level    3; }
    );

    refinementSurfaces
    {
        Peiyang
        {
            level (2 2);
            patchInfo { type wall; }
        }
    }

    refinementRegions
    {
        refinementBox
        {
            mode inside;
            levels ((1E15 2));
        }
    }

    locationInMesh (0 0 100);
}

snapControls
{
    explicitFeatureSnap    true;
    implicitFeatureSnap    false;
}

addLayersControls
{
    layers
    {
        "CAD.*"
        {
            nSurfaceLayers 2;
        }
    }

    relativeSizes       true;
    expansionRatio      1.2;
    finalLayerThickness 0.5;
    minThickness        1e-3;
}

meshQualityControls
{
    #include "meshQualityDict"
    relaxed
    {
        // Maximum non-orthogonality allowed. Set to 180 to disable.
        maxNonOrtho 75;
    }
    nSmoothScale     4;
    errorReduction   0.75;
}

writeFlags
(
    noRefinement
    // scalarLevels
    // layerSets
    // layerFields
);

mergeTolerance 1e-6;

// ************************************************************************* //
